14
	Energy:      49.4715850
C        -19.52946        2.35833       10.57898
C        -18.29599        2.31120        9.92704
C        -17.54040        3.47515        9.77343
C        -18.01157        4.69224       10.26941
C        -19.24353        4.75188       10.92316
C        -19.99956        3.58164       11.07583
H        -20.10607        1.44249       10.69055
H        -19.59655        5.70797       11.30389
H        -17.41725        5.59498       10.14592
H        -16.57950        3.43353        9.26464
H        -17.92235        1.36654        9.53792
N        -21.29572        3.63771       11.76260
O        -21.67604        4.73771       12.18909
O        -21.93499        2.58182       11.87641


