40
	Energy:      76.1587259
C        -15.33989        3.49401        8.62840
C        -14.23427        3.07425        7.78838
C        -13.12311        3.85091        7.51275
C        -13.14462        5.16690        7.95743
C        -14.33107        5.75914        8.53186
C        -15.44327        4.89035        8.94442
O        -16.54282        5.46784        9.61694
C        -11.93228        3.27435        6.79374
H        -11.18945        4.04122        6.54801
H        -12.24343        2.80614        5.85191
H        -11.44280        2.51956        7.42084
C        -16.21562        2.30665        9.12361
C        -14.24934        7.33854        8.54372
C        -15.60780        8.02572        8.33642
H        -16.15309        7.58028        7.49892
H        -15.47951        9.09316        8.10690
H        -16.22605        7.98817        9.23455
C        -13.35392        7.90349        7.37129
H        -13.60223        7.43191        6.41273
H        -12.27951        7.76641        7.55290
H        -13.48081        8.98657        7.24215
C        -13.61446        7.85546        9.84994
H        -14.23744        7.62196       10.71714
H        -13.49113        8.94715        9.81546
H        -12.61940        7.42760       10.02411
C        -16.86011        2.52239       10.50357
H        -16.17632        3.01480       11.20136
H        -17.14667        1.56404       10.95680
H        -17.79095        3.08867       10.43656
C        -17.32026        1.98661        8.10042
H        -18.04072        2.80560        8.01283
H        -17.87222        1.08988        8.40775
H        -16.91479        1.78877        7.10076
C        -15.36156        0.99967        9.29445
H        -14.42442        1.19837        9.82931
H        -15.11688        0.52801        8.33459
H        -15.90228        0.22985        9.85515
H        -14.20354        2.06190        7.37135
H        -12.23044        5.73587        7.78358
H        -17.34176        5.02096        9.94066
