40
	Energy:      55.8612817
C        -15.19789        3.39641        8.56609
C        -14.06117        2.90770        7.90017
C        -13.03668        3.75542        7.47149
C        -13.11370        5.12251        7.75638
C        -14.20702        5.68726        8.44067
C        -15.25245        4.79598        8.79231
O        -16.39746        5.27804        9.36582
C        -11.82857        3.19287        6.77936
H        -11.40140        3.92250        6.08334
H        -12.09047        2.30443        6.19510
H        -11.06823        2.91994        7.51755
C        -16.32834        2.43479        9.01094
C        -14.20547        7.20254        8.76965
C        -15.06726        7.95161        7.73260
H        -14.69223        7.78735        6.71527
H        -15.05706        9.03194        7.91908
H        -16.11347        7.63377        7.74458
C        -12.78716        7.83659        8.71476
H        -12.37562        7.84190        7.69916
H        -12.08634        7.30571        9.36971
H        -12.80736        8.88500        9.03709
C        -14.72242        7.50276       10.19753
H        -15.80089        7.36332       10.30395
H        -14.53614        8.54746       10.47536
H        -14.22239        6.86965       10.93962
C        -16.02865        0.94122        8.71377
H        -15.91282        0.75674        7.63929
H        -16.84673        0.29683        9.05862
H        -15.11886        0.60247        9.22326
C        -16.55114        2.52414       10.53806
H        -15.61747        2.33892       11.08231
H        -17.28430        1.78084       10.87360
H        -16.93096        3.49755       10.85978
C        -17.64111        2.76361        8.26568
H        -17.49265        2.73956        7.17957
H        -18.04129        3.74900        8.51943
H        -18.42536        2.03716        8.51001
H        -13.94832        1.84803        7.68972
H        -12.28131        5.73886        7.42868
H        -16.66216        6.06228        8.86239
