40
	Energy:      55.9035828
C        -15.10598        3.42152        8.71669
C        -13.96924        2.94543        8.03576
C        -12.99587        3.80481        7.51617
C        -13.16143        5.18603        7.64587
C        -14.28012        5.74160        8.28958
C        -15.24600        4.83079        8.79031
O        -16.37128        5.37748        9.34469
C        -11.81159        3.25026        6.77795
H        -10.94080        3.90554        6.88575
H        -12.04875        3.14850        5.71450
H        -11.52808        2.26919        7.17341
C        -16.10892        2.41181        9.33215
C        -14.43617        7.27773        8.41853
C        -14.55275        7.69136        9.90350
H        -15.46441        7.32258       10.38116
H        -14.56964        8.78283       10.00852
H        -13.70184        7.31501       10.48363
C        -15.67743        7.76195        7.63649
H        -16.61666        7.38280        8.04835
H        -15.62824        7.44665        6.58748
H        -15.75035        8.85600        7.65154
C        -13.23239        8.07607        7.85062
H        -12.29787        7.81606        8.36163
H        -13.37720        9.15587        7.97901
H        -13.09994        7.90097        6.77650
C        -17.31670        2.24996        8.38658
H        -17.86724        3.18360        8.24170
H        -18.02835        1.51430        8.77949
H        -16.99841        1.90637        7.39501
C        -15.50176        0.99446        9.53029
H        -15.27224        0.50575        8.57673
H        -16.20420        0.32957       10.04794
H        -14.58442        1.03277       10.12941
C        -16.59597        2.83769       10.73846
H        -17.28549        3.68502       10.71790
H        -15.75146        3.10154       11.38555
H        -17.14769        2.02672       11.22963
H        -13.80683        1.88020        7.89759
H        -12.38854        5.81993        7.22075
H        -17.13116        4.89641        8.98454
