10
	Energy:       7.5400764
C         -4.50804        2.56853        3.61816
C         -3.92977        3.58926        2.67603
O         -3.48142        3.47451        4.03573
H         -4.53080        4.45318        2.42191
H         -3.25233        3.26264        1.89733
C         -4.08848        1.14334        3.56565
H         -5.50593        2.71295        4.00867
H         -4.74961        0.58161        2.89877
H         -4.14873        0.69560        4.56238
H         -3.06171        1.02960        3.20263
