10
	Energy:       7.5400635
C         -4.77747        1.86754        3.23492
C         -4.48689        3.32581        3.46496
O         -4.19265        2.32968        4.45702
H         -5.31833        3.99128        3.65991
H         -3.65004        3.78299        2.95248
C         -3.88056        1.02279        2.40311
H         -5.80144        1.52103        3.25815
H         -4.21672        1.03044        1.36181
H         -3.89888       -0.01156        2.75997
H         -2.84368        1.37376        2.42902
