7
	Energy:       1.8842568
C         -6.44480        1.09579        0.41004
C         -5.52070        1.90657       -0.44436
H         -7.47975        1.31073        0.13482
H         -6.26921        1.32997        1.46237
H         -6.24639        0.03362        0.24451
O         -5.52437        3.13329       -0.45881
H         -4.82017        1.33355       -1.07482
