10
	Energy:       1.6523666
C        -11.28175        3.65980        6.53777
C        -11.31487        5.15149        6.73293
H        -10.87440        3.42850        5.55051
H        -12.29590        3.25638        6.60524
H        -10.66681        3.20212        7.31655
C         -9.99547        5.87204        6.66745
H        -10.15101        6.94199        6.83118
H         -9.32986        5.48897        7.44485
H         -9.54735        5.72658        5.68148
O        -12.36890        5.75249        6.93510
