7
	Energy:      -0.1378847
C         -6.53488        1.04319        0.56483
C         -5.33411        1.74982        0.01571
H         -7.44810        1.48296        0.15642
H         -6.53999        1.13976        1.65298
H         -6.48525       -0.01282        0.28947
O         -5.40281        2.68371       -0.77647
H         -4.35831        1.37700        0.37003
