8
	Energy:     -19.7249382
C         -9.15382        5.08820        6.22041
C        -10.44044        4.33529        6.05518
H         -9.21911        6.03259        5.67414
H         -8.30205        4.52551        5.82969
H         -8.98191        5.27402        7.28365
O        -11.52455        4.76575        6.41782
O        -10.30092        3.12891        5.46605
H         -9.38505        2.89936        5.22289
