8
	Energy:     -26.4058236
C         -9.50966        4.32998        7.00323
C        -10.91625        4.36366        6.50430
H         -8.81621        4.38087        6.16022
H         -9.34397        3.41874        7.58314
H         -9.33525        5.19327        7.65165
O        -11.75794        5.20657        6.76207
O        -11.19953        3.32496        5.69690
H        -12.13625        3.46728        5.44571
