16
	Energy:      -5.7555997
C         -5.85918        2.12565       -0.24042
C         -5.51960        3.49350        0.34047
H         -6.29261        1.47015        0.52095
H         -4.96206        1.65394       -0.65501
H         -6.57491        2.20788       -1.06530
O         -5.06735        4.33899       -0.71617
O         -6.60623        4.05790        1.07412
H         -4.69944        3.34991        1.05455
C         -7.77013        4.30907        0.29954
H         -8.24977        3.37279        0.00190
H         -7.54293        4.91772       -0.58032
H         -8.47727        4.86271        0.92384
C         -4.45408        5.52234       -0.22201
H         -3.57847        5.27684        0.38671
H         -5.16395        6.11739        0.36003
H         -4.12427        6.11861       -1.07714
