10
	Energy:       1.6524409
C        -11.22172        3.65961        6.17293
C        -11.51986        4.45753        7.41340
H        -11.39589        4.27797        5.28895
H        -11.87901        2.78678        6.12898
H        -10.18356        3.31939        6.19705
C        -10.70332        5.70286        7.62954
H        -10.86955        6.39777        6.80276
H        -11.00583        6.18481        8.56335
H         -9.64462        5.44010        7.69475
O        -12.38920        4.10949        8.21100
