8
	Energy:     -20.5339597
C         -9.19430        5.37563        5.29741
C        -10.25471        4.41382        5.74006
H         -9.37833        6.35269        5.75341
H         -9.22551        5.48773        4.21080
H         -8.21285        5.02029        5.62104
O        -11.17198        4.69805        6.49294
O        -10.09338        3.17906        5.21494
H         -9.31570        3.10136        4.63075
