7
	Energy:       8.6468246
C         -5.08193        4.90273        0.44335
C         -6.08783        4.02916        0.31082
H         -5.27871        5.94280        0.68424
H         -4.04408        4.60597        0.31613
C         -5.87313        2.65967       -0.00371
H         -7.11474        4.35141        0.44302
N         -5.70275        1.54165       -0.26019
