14
	Energy:       6.9034203
C        -19.63397        2.31969       10.58119
C        -18.37405        2.30216        9.97694
C        -17.63495        3.47809        9.87296
C        -18.16532        4.67208       10.35567
C        -19.42580        4.68355       10.95891
C        -20.14838        3.49923       11.12590
H        -20.21163        1.40045       10.62353
H        -19.83926        5.62894       11.29918
H        -17.60687        5.59812       10.24981
H        -16.65799        3.46805        9.39741
H        -17.97889        1.37331        9.57479
N        -21.45944        3.53606       11.61799
H        -21.77504        2.64760       11.99405
H        -21.62909        4.30474       12.25887
