12
	Energy:      16.2269668
C        -19.44403        2.32913       10.52989
C        -18.20852        2.30704        9.88292
C        -17.47345        3.48416        9.74291
C        -17.97389        4.68337       10.24987
C        -19.20940        4.70545       10.89684
C        -19.94447        3.52834       11.03685
H        -20.90707        3.54555       11.54091
H        -20.01673        1.41202       10.63898
H        -19.59929        5.63977       11.29182
H        -17.40118        5.60048       10.14078
H        -16.51085        3.46695        9.23884
H        -17.81862        1.37272        9.48794
