12
	Energy:      19.4138851
C        -19.45924        2.35502       10.50383
C        -18.16857        2.30524        9.91128
C        -17.45050        3.47567        9.70743
C        -17.97545        4.67224       10.23468
C        -19.22798        4.70356       10.91732
C        -19.96443        3.53486       11.07705
H        -20.91000        3.52156       11.64347
H        -20.08544        1.46661       10.47589
H        -19.62799        5.65133       11.29458
H        -17.39384        5.58799       10.14215
H        -16.50788        3.46222        9.13584
H        -17.73618        1.33868        9.63503
