15
	Energy:      -1.6078165
C         -6.87681       -1.94809        5.11058
C         -7.61089       -0.97235        5.66174
H         -6.10969       -1.74747        4.36904
H         -7.03360       -2.98298        5.39712
C         -7.48692        0.46861        5.35094
H         -8.37067       -1.20346        6.40089
O         -8.18865        1.30891        5.89337
O         -6.52504        0.69894        4.42549
C         -6.33433        2.07167        4.05533
C         -5.35950        2.73999        5.00659
H         -7.28804        2.61046        4.01448
H         -5.91994        2.07501        3.04182
H         -5.16127        3.77033        4.69811
H         -4.41251        2.19105        5.03499
H         -5.75221        2.75055        6.02824
