16
	Energy:       9.7694888
C        -14.98985        2.61329        8.07705
C        -13.96302        1.89452        7.46908
C        -12.81186        2.55530        7.04817
C        -12.68860        3.93431        7.23561
C        -13.71469        4.67251        7.84669
C        -14.86407        3.98909        8.26277
O        -15.91976        4.61133        8.86710
H        -15.72963        5.55815        8.94681
H        -15.89039        2.10315        8.40752
H        -14.06203        0.82229        7.32480
H        -12.00854        1.99784        6.57340
H        -11.78011        4.42916        6.89866
C        -13.54756        6.15226        8.03137
H        -12.58489        6.50219        7.64376
H        -13.58792        6.40818        9.09499
H        -14.33507        6.69211        7.49582
