15
	Energy:      10.1232557
C        -16.96753        2.29388        9.31076
C        -15.88490        1.74930        8.62355
C        -14.86814        2.58290        8.15305
C        -14.91506        3.96016        8.39561
C        -15.95617        4.50725        9.14591
C        -17.00614        3.66440        9.53483
O        -18.12635        4.19963       10.11086
H        -18.13642        5.12320        9.79617
H        -17.78679        1.66333        9.64141
H        -14.12124        4.59216        8.00822
H        -15.84669        0.68047        8.43053
H        -14.03960        2.16079        7.58978
N        -16.04858        5.89875        9.35534
H        -15.15716        6.36630        9.20840
H        -16.39630        6.10385       10.29077
