15
	Energy:      12.7576769
C        -17.10113        2.12243        9.29610
C        -15.98560        1.64750        8.60669
C        -14.98819        2.53330        8.19715
C        -15.09567        3.89622        8.48849
C        -16.18139        4.37904        9.22086
C        -17.19894        3.48337        9.58069
O        -18.28757        3.97984       10.25203
H        -18.94883        3.27248       10.31689
H        -17.87636        1.42630        9.59824
H        -14.32976        4.57964        8.13301
H        -15.89865        0.58906        8.37507
H        -14.13160        2.16665        7.63740
N        -16.35506        5.76250        9.40466
H        -15.48848        6.26187        9.56519
H        -17.05595        5.93156       10.12567
