15
	Energy:      15.3190136
C        -16.97986        2.29204        9.22510
C        -15.90774        1.71790        8.55813
C        -14.85533        2.54262        8.17657
C        -14.87455        3.92778        8.45902
C        -15.95006        4.53276        9.13380
C        -16.99456        3.66529        9.50286
O        -18.10976        4.10852       10.16633
H        -17.99622        5.05515       10.29390
H        -17.81324        1.66584        9.53254
H        -14.02118        4.51692        8.13395
H        -15.89828        0.65103        8.34335
H        -14.01269        2.09537        7.65315
N        -15.95681        5.89830        9.40593
H        -15.18598        6.49329        9.12468
H        -16.70082        6.38355        9.88587
