16
	Energy:       9.3727138
C        -15.09122        2.50155        8.10462
C        -14.03592        1.82702        7.49122
C        -12.90209        2.52908        7.08572
C        -12.82093        3.90777        7.29276
C        -13.87373        4.59856        7.90790
C        -15.00392        3.87853        8.30850
O        -16.03102        4.55189        8.90851
H        -16.73297        3.91707        9.12399
H        -15.96739        1.94132        8.41483
H        -14.09647        0.75415        7.32887
H        -12.07924        2.00387        6.60755
H        -11.92914        4.44026        6.97032
C        -13.78497        6.08016        8.12967
H        -12.83766        6.48546        7.75872
H        -13.84805        6.30817        9.19860
H        -14.59528        6.59213        7.60067
