16
	Energy:       7.7989438
C        -16.67425        1.75876        9.42891
C        -15.69012        1.25963        8.57209
C        -14.72003        2.11274        8.02861
C        -14.73349        3.46977        8.37643
C        -15.71629        3.96928        9.23243
C        -16.67916        3.11208        9.75003
O        -17.62033        3.64145       10.58276
H        -18.21999        2.93006       10.86028
H        -17.41855        1.08083        9.83364
H        -13.97935        4.14694        7.98237
H        -15.72808        5.02271        9.49643
H        -15.68440        0.19939        8.32918
C        -13.64287        1.56954        7.13701
H        -13.32638        2.32073        6.40574
H        -14.00144        0.70073        6.57507
H        -12.77705        1.27063        7.73576
