13
	Energy:       5.7132013
C        -17.16594        1.82961        9.37376
C        -16.09973        1.35776        8.60611
C        -15.07623        2.22547        8.22104
C        -15.11708        3.56693        8.60296
C        -16.18143        4.04037        9.36989
C        -17.19689        3.16970        9.74940
O        -18.21865        3.67363       10.49894
H        -18.84568        2.95628       10.68599
H        -17.95459        1.14399        9.66592
H        -14.32115        4.24362        8.30401
H        -16.21916        5.08335        9.67043
H        -16.06526        0.31335        8.30713
H        -14.24664        1.85657        7.62332
