14
	Energy:      25.5281711
C        -19.67867        2.32843       10.63059
C        -18.38270        2.32328        9.99867
C        -17.64203        3.48209        9.82774
C        -18.19827        4.64090       10.35013
C        -19.48168        4.63974       11.02821
C        -20.27810        3.47642       11.19392
H        -20.20332        1.37798       10.63696
H        -19.80431        5.60980       11.39898
H        -17.61680        5.55860       10.22926
H        -16.67742        3.47801        9.30385
H        -17.94607        1.39393        9.63137
C        -21.63358        3.40815       11.89425
C        -22.70882        3.29362       12.44367
H        -23.68581        3.16910       12.93816
