9
	Energy:      -1.8496350
C         -5.69690        3.26776       -0.30464
N         -5.55191        2.30438       -0.93494
C         -5.88276        4.48540        0.49348
C         -4.69228        5.41926        0.35856
H         -6.01971        4.22003        1.54751
H         -6.79150        5.00493        0.17030
H         -4.84640        6.32136        0.95905
H         -4.54499        5.72466       -0.68315
H         -3.76999        4.93649        0.69979
