10
	Energy:      -0.9296181
C         -3.85782       -1.02026        2.06260
C         -3.89653        0.24170        2.90121
H         -4.49034       -1.79452        2.50735
H         -2.83795       -1.41217        1.98752
H         -4.21434       -0.82607        1.04555
C         -3.03043        1.30711        2.28549
H         -3.52166        0.04041        3.90942
H         -4.92241        0.61523        2.97935
O         -3.41493        2.45508        2.08546
H         -1.98696        1.01738        2.07310
