10
	Energy:      -1.4673313
C         -4.91738       -1.18510        2.56481
C         -3.46228       -0.77340        2.67671
H         -5.06024       -2.19421        2.96326
H         -5.56378       -0.50112        3.12470
H         -5.24865       -1.17894        1.52108
C         -3.20596        0.61366        2.14082
H         -2.83050       -1.47002        2.11646
H         -3.14642       -0.79033        3.72468
O         -4.06429        1.34767        1.66291
H         -2.15657        0.94975        2.20418
