15
	Energy:       8.0047800
C        -12.40519       -1.62702        6.85874
C        -12.18211       -0.48772        5.86520
H        -13.26508       -1.41740        7.50511
H        -11.52614       -1.78886        7.49102
H        -12.63241       -2.56308        6.33591
C        -11.92017        0.82405        6.60198
H        -12.76606        1.08390        7.24874
H        -11.80673        1.65317        5.89414
H        -11.01690        0.76818        7.21821
C        -11.02915       -0.81048        4.91577
H        -10.08449       -0.93340        5.45540
H        -10.90383       -0.01624        4.17104
H        -11.22981       -1.73077        4.35542
O        -13.37198       -0.31778        5.09393
H        -13.54492       -1.15014        4.62165
