15
	Energy:       8.0047848
C        -12.91539       -1.48959        6.81051
C        -12.84684       -0.80054        5.44838
H        -13.78608       -1.14321        7.37888
H        -12.01501       -1.30052        7.40405
H        -13.03262       -2.57318        6.69526
C        -12.73902        0.71344        5.61700
H        -12.73757        1.21540        4.64263
H        -11.82795        0.99648        6.15422
H        -13.60215        1.10732        6.16583
C        -11.67506       -1.33459        4.62581
H        -11.76769       -2.41532        4.46889
H        -10.71564       -1.13735        5.11502
H        -11.65826       -0.87793        3.62966
O        -14.05826       -1.06951        4.74154
H        -14.13319       -2.03271        4.63013
