15
	Energy:      26.8487250
C        -12.84311       -1.12230        6.89174
C        -12.21295        0.07104        6.14947
H        -13.33035       -0.88144        7.83663
H        -12.17346       -1.98244        7.01870
H        -13.65538       -1.51201        6.24724
C        -11.53333        1.31516        6.75199
H        -11.94670        1.66737        7.69634
H        -11.69058        2.14684        6.03863
H        -10.44042        1.23931        6.82644
C        -11.16461       -0.52681        5.21049
H        -10.28002       -0.80876        5.80426
H        -10.84312        0.18353        4.44459
H        -11.50954       -1.43788        4.71324
O        -13.37766        0.65866        5.53508
H        -13.90270        0.97145        6.26567
