18
	Energy:      16.9829646
C        -12.48413       -1.23887        7.33864
C        -12.43361        0.05584        6.51858
H        -12.81052       -1.05153        8.36700
H        -11.50079       -1.71888        7.38966
H        -13.19677       -1.94842        6.90357
C        -11.55367        1.10475        7.20888
H        -11.89084        1.30201        8.23203
H        -11.59099        2.05936        6.67232
H        -10.51000        0.77682        7.26516
C        -11.83956       -0.25690        5.13765
H        -10.82149       -0.65356        5.21196
H        -11.81517        0.64274        4.51161
H        -12.45765       -0.98849        4.60418
O        -13.75183        0.55903        6.25358
C        -14.52234        0.96602        7.37379
H        -14.67847        0.14261        8.07462
H        -15.50319        1.28322        7.00764
H        -14.06468        1.81965        7.87981
