11
	Energy:      -0.8271779
C         -7.52561        5.17881        0.18600
C         -6.10780        4.83234        0.13112
C         -8.17811        4.02454        0.15739
H         -7.90892        6.18008        0.23805
O         -9.53894        3.89538        0.19113
C         -7.25998        2.87190        0.08380
O         -5.96719        3.47662        0.07150
O         -5.19568        5.63836        0.13800
H         -9.77554        2.95115        0.15919
H         -7.39595        2.29143       -0.83312
H         -7.34461        2.21806        0.95643
