11
	Energy:      -2.4277350
C         -5.92038        5.88270        0.11913
C         -4.73973        5.01979        0.10663
C         -6.96122        5.05892        0.13612
H         -5.87619        6.95494        0.11444
O         -8.28324        5.39850        0.15227
C         -6.54856        3.64193        0.13611
O         -5.12122        3.71233        0.11660
O         -3.59240        5.42665        0.08977
H         -8.36263        6.36960        0.14917
H         -6.89521        3.10818       -0.75335
H         -6.87101        3.11522        1.03878
