13
	Energy:      37.8672503
C        -19.73730        2.30674       10.65653
C        -18.44098        2.31697       10.02194
C        -17.70565        3.48145        9.86377
C        -18.27237        4.63444       10.38952
C        -19.56848        4.61859       11.06205
C        -20.36496        3.44342       11.21461
H        -20.24323        1.34559       10.67155
H        -19.88158        5.59442       11.43175
H        -17.69119        5.55696       10.26904
H        -16.73563        3.48337        9.34821
H        -18.00270        1.39291        9.63885
C        -21.75199        3.31418       11.86066
N        -22.80195        3.13099       12.31646


