20
	Energy:      40.4446337
C         -1.74111        2.66603       -0.22968
C         -1.56200        3.67108        0.94537
C         -0.44283        2.86562       -1.04523
H         -2.62351        2.93288       -0.82196
H         -1.86300        1.63881        0.13089
C          0.69176        2.34659       -0.18625
C          0.84931        3.21168        0.82600
C         -0.18262        4.30280        0.64366
H         -1.59686        3.16919        1.91827
H         -2.35529        4.42663        0.91608
H          1.23011        1.42299       -0.33901
H          1.53882        3.12516        1.65261
C         -0.24207        4.38515       -0.89296
H         -0.45785        2.48809       -2.06811
H          0.03596        5.23786        1.16046
C          0.98405        4.97672       -1.58403
H         -1.12369        4.94937       -1.22754
H          1.88738        4.36889       -1.47683
H          1.20065        5.97361       -1.18639
H          0.79081        5.07722       -2.65751


