22
	Energy:      27.6463732
C         -0.71960        0.40107       -1.21410
C          0.59751        2.40805       -0.51801
C          0.69202        0.92018       -0.89435
C          1.32850        0.98427       -2.28304
H          1.22467        0.31525       -0.15810
C         -1.03922        1.07184       -2.55864
H         -0.71611       -0.68871       -1.32953
C          0.23376        1.89725       -2.84453
H          1.37902        0.00901       -2.77945
C          0.28168        3.08558       -1.86008
H          1.55539        2.77227       -0.12969
H          2.32189        1.44608       -2.28106
H         -1.20647        0.30824       -3.32728
H         -0.66273        3.63881       -1.82494
H          1.07860        3.79256       -2.11885
H         -1.93796        1.69476       -2.49978
H         -0.17292        2.60485        0.23415
H         -1.44954        0.66021       -0.44074
C          0.39460        2.29485       -4.29525
H          0.40721        1.41466       -4.94684
H          1.33196        2.83850       -4.45418
H         -0.42884        2.94103       -4.61709
