22
	Energy:      52.5213156
C         -0.53445        0.31789       -1.19494
C          0.78692        2.27090       -0.44084
C          0.84822        0.71839       -0.63879
C          1.75838        0.50489       -1.88080
H          1.11870        0.19129        0.25694
C         -0.51131        0.91036       -2.60795
H         -0.64281       -0.77571       -1.23428
C          0.93116        1.57137       -2.69307
C          0.76861        2.84456       -1.84969
H          1.66770        2.66116        0.09223
H          1.20074        1.76693       -3.72833
H         -0.65376        0.12593       -3.35613
H         -0.19289        3.35665       -2.04983
H          1.54827        3.58247       -2.02832
H         -1.33998        1.62495       -2.72995
H         -0.10353        2.57325        0.11974
H         -1.34986        0.71514       -0.58690
C          3.22946        0.17068       -1.44677
H          1.56061       -0.38647       -2.48420
H          3.41241        0.17407       -0.36128
H          4.07591        0.64741       -1.95551
H          3.38708       -0.91058       -1.66521
