21
	Energy:      26.8387823
C         -0.83022        0.47017       -1.14311
C          0.67181        2.39279       -0.52986
C          0.60738        0.85839       -0.72758
C          1.40779        0.67804       -2.02974
H          0.97708        0.30064        0.13567
C         -0.93108        0.97709       -2.59762
H         -0.97407       -0.61500       -1.10578
C          0.46162        1.56818       -2.84887
C          0.51686        2.81113       -1.97782
H          1.64766        2.71373       -0.15631
H          0.74099        1.74904       -3.88635
H         -1.14608        0.14846       -3.28022
H         -1.72774        1.72173       -2.70216
H         -0.14356        2.77565        0.08707
H         -1.58768        0.92938       -0.49945
O          0.40483        3.96059       -2.37321
C          1.56813       -0.75142       -2.52566
H          2.40769        1.12501       -1.93997
H          0.62165       -1.28213       -2.65621
H          2.17345       -1.32863       -1.81888
H          2.08174       -0.75712       -3.49282
