20
	Energy:      32.9426839
C         -0.73566        0.40217       -1.18741
C          0.55305        2.44909       -0.50222
C          0.64227        0.91216       -0.73771
C          1.43215        0.84330       -2.03663
H          1.05840        0.34178        0.10299
C         -0.86758        0.96548       -2.60984
H         -0.76906       -0.69409       -1.21108
C          0.42175        1.76528       -2.79139
H          1.50222       -0.18381       -2.43718
C          0.33395        3.08004       -1.91846
H          1.49908        2.77972       -0.04739
H          0.71881        1.91797       -3.83288
H          2.44936        1.24253       -1.94631
H         -0.94051        0.14773       -3.33525
H         -1.73863        1.60925       -2.72306
H         -0.26286        2.69665        0.17529
H         -1.53796        0.75318       -0.53289
C         -0.88415        4.04124       -1.99833
H          1.22156        3.66626       -2.19780
N         -1.75541        4.86253       -2.01687
