21
	Energy:      39.2383093
C         -0.74953        0.41722       -1.22354
C          0.62004        2.43794       -0.50570
C          0.64775        0.91815       -0.75193
C          1.46540        0.79405       -2.03996
H          1.04746        0.36252        0.10152
C         -0.86422        0.80985       -2.73480
H         -0.77033       -0.67585       -1.16203
C          0.49041        1.60599       -2.87941
H          1.54092       -0.22780       -2.40979
C          0.44903        2.87512       -1.95269
H          1.57132        2.81044       -0.09967
H          0.80694        1.89141       -3.88285
H          2.46769        1.23496       -1.94696
H         -0.22045        2.75954        0.11411
H         -1.54977        0.80531       -0.58518
O          0.30848        4.02349       -2.29708
C         -1.23602       -0.57630       -3.52343
H         -1.60954        1.58914       -2.96096
H         -0.56813       -1.42210       -3.22735
H         -1.20474       -0.47840       -4.62381
H         -2.27618       -0.92163       -3.27036
