21
	Energy:      25.6312255
C         -0.77527        0.33017       -1.16364
C          0.59365        2.33652       -0.46791
C          0.63233        0.80997       -0.71590
C          1.43677        0.72269       -2.01780
H          1.04777        0.25263        0.12677
C         -0.87183        0.85206       -2.62152
C          0.45991        1.58614       -2.81377
H          1.52834       -0.29422       -2.41113
C          0.41126        2.79294       -1.89856
H          1.54585        2.70921       -0.08165
H          0.74874        1.81939       -3.83775
H          2.43426        1.16754       -1.92721
H         -0.96933        0.03078       -3.34004
H         -1.73126        1.52084       -2.74172
H         -0.24492        2.64313        0.16038
O          0.21203        3.94399       -2.25296
C         -0.93547       -1.18442       -1.08422
H         -1.55532        0.78830       -0.54337
H         -0.19287       -1.71048       -1.69219
H         -1.92863       -1.48278       -1.43604
H         -0.82700       -1.52735       -0.05008
