20
	Energy:      39.1688722
C         -0.90332        0.50478       -1.19837
C          0.65961        2.32476       -0.58220
C          0.55793        0.83606       -0.82169
C          1.23661        0.76945       -2.19224
H          1.00652        0.21290       -0.04760
C         -1.08729        1.24282       -2.56264
H         -1.03750       -0.57756       -1.30677
C          0.32480        1.83835       -2.80609
H          1.15257       -0.21224       -2.66968
C          0.52923        2.92741       -1.77433
H          0.56612        2.12731       -3.82979
H          2.29482        1.06070       -2.16943
H         -1.61613        0.86724       -0.44937
H          0.50559        3.98982       -1.96311
H          0.76574        2.80593        0.37800
C         -1.53699        0.30230       -3.67421
H         -1.83623        2.03913       -2.46154
H         -0.84180       -0.53044       -3.81832
H         -1.61549        0.84235       -4.62340
H         -2.52077       -0.11928       -3.44297
