17
	Energy:      34.1085578
C         -0.70723        0.42530       -1.12097
C          0.64194        2.40387       -0.52578
C          0.69083        0.90010       -0.67290
C          1.46765        0.81231       -1.99000
H          1.13294        0.36745        0.16936
C         -0.82947        1.02189       -2.55065
H         -0.75506       -0.66850       -1.16598
C          0.51506        1.75776       -2.72800
H          1.48976       -0.19822       -2.41361
C          0.53636        2.91916       -1.76050
H          0.79762        2.00388       -3.75180
H          2.49407        1.19410       -1.91844
H         -0.93617        0.21584       -3.28523
H         -1.69334        1.68933       -2.63950
H         -1.50721        0.78113       -0.46289
H          0.42750        3.96120       -2.01962
H          0.63497        2.94904        0.40566
