21
	Energy:      26.1922243
C         -0.74148        0.42899       -1.22256
C          0.50796        2.45302       -0.40899
C          0.61463        0.93407       -0.67255
C          1.48811        0.82549       -1.93446
H          0.96461        0.36812        0.19356
C         -0.77877        1.00000       -2.65896
H         -0.76283       -0.66635       -1.25478
C          0.56887        1.72706       -2.76977
C          0.43899        2.92405       -1.84496
H          1.40025        2.85353        0.07712
H          0.90829        1.97645       -3.77451
H         -0.85042        0.18539       -3.38777
H         -1.63356        1.67018       -2.79920
H         -0.39694        2.72241        0.14003
H         -1.59197        0.76954       -0.62348
O          0.25722        4.07789       -2.20141
C          2.93133        1.29268       -1.80683
H          1.49634       -0.20162       -2.32384
H          3.03033        2.32635       -1.46454
H          3.43357        1.22402       -2.77767
H          3.47304        0.65472       -1.10087
