20
	Energy:      54.2794422
C         -0.52535        0.42125       -1.15283
C          0.45159        2.55162       -0.54326
C          0.81165        1.10205       -0.75318
C          1.59075        1.29494       -2.06077
H          1.36788        0.61370        0.04337
C         -0.80007        0.96975       -2.56761
H         -0.47545       -0.67023       -1.16285
C          0.36924        1.94966       -2.76808
C          0.15493        3.05559       -1.73986
H          0.52604        2.25635       -3.80451
H         -0.81707        0.15689       -3.30228
H         -1.76504        1.49343       -2.62100
H         -1.33650        0.71429       -0.47215
H          0.01198        4.10440       -1.98251
H          0.57589        3.07223        0.40250
C          2.78356        2.33407       -1.98207
H          1.89660        0.33803       -2.52532
H          2.46616        3.38925       -1.87722
H          3.14982        2.33869       -3.00075
H          3.60001        2.19284       -1.23781
