17
	Energy:      47.7144391
C         -0.44656        0.80315       -1.04800
C          0.34916        1.99629       -0.63735
C          1.03778        0.70292       -0.92342
C          1.62805        0.78788       -2.31405
H          1.52559        0.11770       -0.16828
C         -0.77622        0.94320       -2.51563
H         -1.12561        0.29445       -0.39164
C          0.52130        1.72627       -2.89597
H          1.65772       -0.18641       -2.81056
C          0.51859        2.88469       -1.84742
H          0.29781        2.42880        0.34294
H          0.62864        2.01446       -3.94132
H          2.61796        1.25341       -2.31501
H         -0.84667       -0.02547       -3.01901
H         -0.32625        3.56691       -1.97947
H          1.46257        3.43711       -1.82727
H         -1.68363        1.53159       -2.67997
