6
	Energy:       0.4172876
C        -16.09978        3.11965        8.93315
C        -15.55252        4.50619        8.92314
H        -15.46195        2.41022        9.47271
H        -16.22293        2.69955        7.92837
H        -17.08629        3.04596        9.40545
N        -15.12478        5.58349        8.91406


