21
	Energy:      27.0234128
C         -0.85540       -0.21219       -1.00358
C          0.02636        2.02379       -0.23700
C          0.41632        0.58999       -0.65503
C          1.03496        0.80807       -2.03757
H          1.06081        0.08882        0.07000
C         -1.30004        0.38245       -2.35546
H         -0.62310       -1.27623       -1.12311
C         -0.22605        1.44700       -2.62825
H          1.31767       -0.12509       -2.53618
C         -0.45722        2.53147       -1.58074
H         -0.76794        2.04237        0.51186
H          1.89619        1.48607       -2.01282
H         -1.30473       -0.39583       -3.12677
H         -2.30704        0.80927       -2.28983
H          0.89715        2.60195        0.08325
H         -1.63287       -0.11526       -0.23903
O         -0.98482        3.61543       -1.77058
C         -0.10887        1.90871       -4.05771
H          0.09657        1.06376       -4.72415
H          0.70392        2.63328       -4.17559
H         -1.03183        2.38991       -4.39732
