20
	Energy:      40.8622760
C         -0.15167       -0.42753       -0.49873
C          1.13004        1.39581       -1.55459
C          1.24330       -0.00886       -1.00815
C          1.32103       -0.77936       -2.32986
H          2.07422       -0.17112       -0.32123
C         -0.98490       -0.51620       -1.80761
H         -0.11309       -1.40892       -0.01279
C          0.04835       -0.13153       -2.89482
H          1.23752       -1.86505       -2.20214
C          0.41275        1.32582       -2.68679
H          2.22478       -0.55730       -2.91225
H         -1.35630       -1.53817       -1.94627
H         -1.84512        0.16210       -1.78399
H         -0.57970        0.29247        0.20699
C         -0.30651       -0.52818       -4.30838
H         -1.22544       -0.03026       -4.63625
H          0.48950       -0.25637       -5.01037
H         -0.46416       -1.60923       -4.38579
H          0.09513        2.15625       -3.29941
H          1.50468        2.29057       -1.08131
