21
	Energy:      26.9179484
C         -0.66873        0.31941       -1.22850
C          0.45195        2.45664       -0.48723
C          0.67553        0.97083       -0.84215
C          1.37567        1.05494       -2.20172
H          1.21806        0.42103       -0.07033
C         -0.97958        0.92640       -2.61254
H         -0.56037       -0.76779       -1.31435
C          0.23554        1.83248       -2.86780
H          1.55005        0.07325       -2.65569
C          0.11134        2.97505       -1.86750
H          1.37144        2.93108       -0.13476
H          2.31903        1.61118       -2.15790
H         -1.05985        0.13232       -3.36339
H         -1.92250        1.48403       -2.59694
H         -0.37403        2.60559        0.21100
H         -1.46023        0.52765       -0.50165
O         -0.23533        4.11810       -2.12049
C          0.46333        2.24886       -4.29761
H          0.63208        1.37920       -4.94100
H          1.33464        2.90725       -4.38311
H         -0.40024        2.79763       -4.68849
