21
	Energy:      26.9180570
C         -0.70984        0.46101       -1.30255
C          0.64341        2.46985       -0.59090
C          0.68799        0.95245       -0.87219
C          1.45690        0.88140       -2.19485
H          1.11693        0.37500       -0.05067
C         -0.87283        1.03640       -2.72487
H         -0.74013       -0.63396       -1.33793
C          0.46084        1.76609       -2.95204
H          1.52316       -0.13501       -2.59827
C          0.43930        2.96141       -2.00744
H          1.59910        2.83880       -0.20967
H          2.46158        1.31362       -2.12369
H         -1.02025        0.22438       -3.44576
H         -1.73464        1.71040       -2.78233
H         -0.18836        2.75642        0.05562
H         -1.50106        0.80319       -0.62801
O          0.25702        4.12613       -2.32518
C          0.80861        2.08138       -4.38357
H          0.89007        1.16780       -4.98150
H          1.76286        2.61532       -4.44963
H          0.04497        2.71950       -4.84118
