20
	Energy:      40.8622121
C         -0.71609        0.39765       -1.19434
C          0.58935        2.41485       -0.63840
C          0.70026        0.92855       -0.88967
C          1.31326        0.96340       -2.29310
H          1.27018        0.37558       -0.14265
C         -1.04869        1.06434       -2.55824
H         -0.71096       -0.69277       -1.30250
C          0.22586        1.89348       -2.85088
H          1.33694       -0.01945       -2.77832
C          0.30394        2.99698       -1.81353
H          2.32105        1.39809       -2.31872
H         -1.21407        0.29432       -3.32069
H         -1.95000        1.68413       -2.49425
H         -1.44539        0.66632       -0.42260
C          0.41568        2.32227       -4.28668
H          0.43676        1.45595       -4.95644
H          1.35625        2.86838       -4.41852
H         -0.39961        2.97799       -4.61099
H          0.10057        4.04423       -1.98003
H          0.66390        2.90107        0.32232
