18
	Energy:      20.4799662
C         -0.73087        0.43838       -1.20103
C          0.62870        2.44760       -0.49494
C          0.65901        0.92250       -0.73671
C          1.46468        0.81037       -2.03372
H          1.05468        0.35932        0.11095
C         -0.84094        0.98919       -2.63840
H         -0.77350       -0.65666       -1.21694
C          0.50676        1.68844       -2.83836
H          1.52786       -0.21451       -2.41441
C          0.47673        2.90107       -1.93004
H          1.57666        2.81372       -0.09257
H          0.79993        1.91003       -3.86356
H          2.47147        1.23323       -1.94404
H         -0.96962        0.16632       -3.34976
H         -1.68994        1.67369       -2.73868
H         -0.21997        2.76203        0.11573
H         -1.53843        0.80296       -0.55838
O          0.31056        4.05481       -2.29264
