22
	Energy:      26.3771921
C         -0.66966        0.31776       -1.24328
C          0.85707        2.05737       -0.32002
C          0.72140        0.55240       -0.61963
C          1.63108        0.34322       -1.83952
H          0.92418       -0.08744        0.24171
C         -0.52520        0.93591       -2.64498
H         -0.88546       -0.75365       -1.32427
C          0.93031        1.44632       -2.64668
C          1.00133        2.67459       -1.71964
H          1.74575        2.26468        0.28564
H          1.32512        1.62810       -3.64843
H         -0.67023        0.16732       -3.41262
H          0.20987        3.40197       -1.92784
H          1.96231        3.19122       -1.81539
H         -1.25332        1.73428       -2.81981
H         -0.01092        2.45730        0.21428
H         -1.47508        0.78541       -0.66819
C          3.12382        0.52218       -1.60675
H          1.47281       -0.64517       -2.29171
H          3.39086        1.48126       -1.15623
H          3.66291        0.44602       -2.55689
H          3.49664       -0.26551       -0.94362
