22
	Energy:      26.3771921
C         -3.48982       -0.84343       -1.74824
C         -1.35677       -0.02175       -0.75604
C         -2.18370       -1.28604       -1.05747
C         -1.43502       -1.93654       -2.23038
H         -2.34824       -1.92214       -0.18527
C         -3.00852       -0.40655       -3.14296
H         -4.18860       -1.68304       -1.83657
C         -1.48767       -0.65426       -3.07441
C         -0.87618        0.41447       -2.14868
H         -0.50354       -0.24867       -0.10791
H         -1.01249       -0.70968       -4.05602
H         -3.47153       -1.03215       -3.91451
H         -1.21331        1.42595       -2.39783
H          0.21790        0.40616       -2.19848
H         -3.25753        0.63785       -3.35587
H         -1.94886        0.75831       -0.26639
H         -3.99633       -0.03276       -1.21497
C         -0.05001       -2.48689       -1.92483
H         -2.02807       -2.74051       -2.68687
H          0.42606       -2.83637       -2.84700
H         -0.12792       -3.33928       -1.24177
H          0.62446       -1.76071       -1.46455
