21
	Energy:      26.8385292
C          1.08140        4.15138       -2.76670
C          0.47812        4.40041       -0.33713
C          0.57011        5.14044       -1.69418
C         -0.91574        5.31151       -2.05734
H          1.15248        6.06280       -1.63903
C         -0.12749        3.22018       -2.99942
H          1.34581        4.67303       -3.69279
C         -1.18979        3.80039       -2.05760
C         -0.68326        3.48298       -0.66141
H          0.19819        5.07550        0.47568
H         -2.22115        3.49345       -2.22841
H         -0.45007        3.26182       -4.04490
H          0.12255        2.18085       -2.75989
H          1.38135        3.83464       -0.10039
H          1.96399        3.59570       -2.43325
O         -1.10948        2.59885        0.06439
C         -1.20781        6.03828       -3.36172
H         -1.45992        5.82156       -1.25026
H         -0.88044        7.08093       -3.29239
H         -2.28493        6.03535       -3.55922
H         -0.71577        5.59747       -4.23239
