21
	Energy:      26.8387480
C          1.23780        1.36466       -1.96132
C         -0.24339        2.79432       -0.51535
C          1.19489        2.62158       -1.06226
C          1.28447        3.77773       -2.07428
H          1.95347        2.62136       -0.27645
C          0.47259        1.80468       -3.22764
H          2.26848        1.09246       -2.21291
C          0.10790        3.26127       -2.91544
C         -0.93133        3.17140       -1.81154
H         -0.31191        3.62417        0.19279
H         -0.19946        3.88377       -3.75517
H          1.11515        1.73078       -4.11107
H         -0.41029        1.17771       -3.39359
H         -0.65239        1.87184       -0.09852
H          0.77026        0.49649       -1.48529
O         -2.13349        3.32853       -1.95387
C          2.60924        3.92550       -2.80786
H          1.04838        4.73763       -1.59418
H          2.53737        4.72385       -3.55396
H          2.92830        3.01972       -3.32962
H          3.40186        4.19413       -2.10169
