20
	Energy:      25.6905111
C         -0.33516       -0.11091       -1.18814
C          0.84255        1.58901        0.21952
C          0.94605        0.17654       -0.38892
C          1.97271        0.37982       -1.50385
H          1.18838       -0.59726        0.34206
C         -0.17354        0.78168       -2.42638
H         -0.38221       -1.16421       -1.48667
C          1.16590        1.50055       -2.16699
H          2.09726       -0.50089       -2.14285
C          1.05587        2.50807       -0.99950
H          1.64921        1.74534        0.94584
H          1.61135        1.92311       -3.07075
H          2.95098        0.70757       -1.13656
H         -0.10441        0.15932       -3.32650
H         -1.01943        1.46157       -2.55973
H         -0.11037        1.74872        0.73582
H         -1.24381        0.12551       -0.62550
C         -0.00312        3.50886       -1.16642
H          2.01562        3.02897       -0.88355
N         -0.83768        4.30454       -1.29639
