21
	Energy:      20.5965330
C         -0.19104        0.25229       -0.56570
C          1.30666        2.04991        0.31425
C          1.25266        0.58150       -0.15068
C          1.95980        0.64044       -1.50549
H          1.67092       -0.12193        0.57181
C         -0.35326        1.02290       -1.88379
H         -0.31161       -0.82277       -0.74071
C          1.01410        1.71236       -2.05521
H          1.91266       -0.30328       -2.05921
C          1.21385        2.83362       -1.01026
H          2.26052        2.26752        0.80889
H          1.21568        2.02888       -3.08119
H          3.00074        0.97335       -1.43549
H         -0.53405        0.32029       -2.70573
H         -1.19362        1.72221       -1.85319
H          0.50327        2.28577        1.02095
H         -0.92600        0.56027        0.18467
N          0.16971        3.84387       -1.00658
H          2.17484        3.33088       -1.19536
H          0.37498        4.54875       -0.30008
H          0.15506        4.32594       -1.90406
