21
	Energy:      26.0837107
C         -0.85924        0.70809       -1.93745
C          0.23298        2.06261       -0.03790
C          0.30677        0.79343       -0.91528
C          1.47174        1.13158       -1.85500
H          0.43869       -0.12246       -0.33457
C         -0.54692        1.86147       -2.92474
C          0.80113        2.38568       -2.41633
H          1.65138        0.36474       -2.61599
C          0.49538        3.09406       -1.11173
H          1.04335        2.09009        0.69593
H          1.39263        2.97901       -3.11230
H          2.40345        1.33957       -1.31707
H         -0.45067        1.46557       -3.94188
H         -1.31998        2.63762       -2.92663
H         -0.73472        2.21077        0.44138
O          0.42730        4.30358       -0.96077
C         -2.25793        0.77914       -1.34605
H         -0.77213       -0.24348       -2.48000
H         -3.00715        0.60623       -2.12613
H         -2.47257        1.75597       -0.90252
H         -2.39088        0.01411       -0.57456
