21
	Energy:      21.2595592
C         -0.73543        0.34681       -1.20041
C          0.44112        2.45318       -0.54515
C          0.61460        0.93664       -0.75801
C          1.42068        0.87798       -2.05637
H          1.05654        0.42278        0.09779
C         -0.87765        0.85701       -2.64149
H         -0.70555       -0.74857       -1.19004
C          0.39368        1.70357       -2.83814
H          1.54357       -0.13915       -2.44344
C          0.36078        2.99514       -1.98692
H          1.31416        2.87814       -0.03610
H          0.64130        1.87817       -3.88775
H          2.40013        1.36176       -1.97929
H         -0.88240        0.00869       -3.33624
H         -1.80538        1.41412       -2.79631
H         -0.44223        2.68259        0.06103
H         -1.56533        0.67151       -0.56486
N         -0.77996        3.86668       -2.21285
H          1.26846        3.57695       -2.19235
H         -1.63955        3.41647       -1.90371
H         -0.88895        4.03635       -3.21175
