21
	Energy:      25.2785269
C          0.28128        1.12223       -3.24926
C          2.46934        2.05225       -2.40129
C          1.71730        0.76517       -2.80069
C          2.38297        0.39963       -4.13102
H          1.75167       -0.00867       -2.03106
C          0.48673        1.73449       -4.65704
H         -0.32807        0.21434       -3.32820
C          2.01791        1.72457       -4.80737
H          1.92753       -0.47062       -4.61542
C          2.60032        2.67087       -3.77438
H          3.46274        1.83413       -2.00088
H          2.41348        1.86511       -5.81285
H          3.46325        0.24295       -4.03502
H          1.89237        2.68953       -1.72832
H         -0.21303        1.80282       -2.54831
O          3.06457        3.77562       -4.00859
C         -0.16872        3.09578       -4.83203
H          0.05491        1.05087       -5.40037
H          0.07517        3.51769       -5.81231
H         -1.25789        3.00428       -4.76436
H          0.14868        3.80954       -4.06528
