20
	Energy:      26.9869379
C          0.18836        0.19309       -1.09934
C          1.18202        2.28685       -0.15915
C          1.37692        0.76533       -0.30803
C          2.50759        0.68325       -1.33576
H          1.55986        0.25290        0.63842
C          0.44806        0.70073       -2.52527
H          0.19892       -0.90255       -1.08193
C          1.74677        1.51346       -2.36909
H          2.71486       -0.33912       -1.66893
C          1.48343        2.80707       -1.57447
H          1.91869        2.68786        0.54660
H          2.25983        1.68287       -3.31809
H          3.43548        1.15553       -0.99645
H          0.60376       -0.14817       -3.20112
H         -0.38830        1.28919       -2.91345
H          0.18192        2.55191        0.19828
H         -0.77745        0.53179       -0.71131
O          0.40828        3.55251       -2.11030
H          2.37703        3.44209       -1.56561
H          0.24881        4.30399       -1.51423
