20
	Energy:      38.9933739
C         -0.82814        0.38432        0.21139
C          0.49378        2.14373       -0.90645
C          0.09691        0.68789       -0.98905
C         -0.91198        0.78363       -2.13774
H          0.92287       -0.00620       -1.14628
C         -2.12312        1.18012       -0.14237
H         -1.05482       -0.68694        0.26092
C         -1.72398        1.89536       -1.46034
H         -1.48159       -0.13989       -2.29201
C         -0.59778        2.86893       -1.19456
H         -2.54653        2.29164       -2.05706
H         -0.46228        1.08937       -3.09117
H         -0.38614        0.68802        1.16679
H         -0.68187        3.94486       -1.18019
H          1.46259        2.52039       -0.61603
C         -2.59620        2.09948        0.97381
H         -2.92534        0.46126       -0.35753
H         -3.46243        2.68451        0.64845
H         -1.81659        2.79667        1.29646
H         -2.89410        1.51179        1.84852
