21
	Energy:      26.0830540
C         -1.20445        0.12808       -1.40742
C          0.01482        1.98465       -0.10218
C          0.07737        0.53444       -0.63066
C          1.07115        0.66863       -1.79216
H          0.36462       -0.18936        0.13560
C         -1.12930        0.99655       -2.68907
C          0.22611        1.69822       -2.54287
H          1.21079       -0.26177       -2.35277
C          0.04146        2.70921       -1.42893
H          0.91142        2.24216        0.46864
H          0.66485        2.11501       -3.44847
H          2.04603        1.05431       -1.47337
H         -1.13982        0.35356       -3.57622
H         -1.95855        1.70813       -2.76691
H         -0.88852        2.20777        0.46545
O         -0.10694        3.91148       -1.58007
C         -2.51120        0.28284       -0.64624
H         -1.10942       -0.92686       -1.69981
H         -3.34146       -0.12217       -1.23474
H         -2.74665        1.32967       -0.43277
H         -2.47276       -0.26170        0.30249
