20
	Energy:      38.9933736
C         -1.27955       -0.09405       -0.41382
C          0.00731        2.00114       -0.19773
C          0.04701        0.60824       -0.78257
C         -0.19204        0.96346       -2.25335
H          0.95983        0.04856       -0.57714
C         -2.32830        0.67867       -1.27313
H         -1.25524       -1.14652       -0.71903
C         -1.46103        1.77164       -1.95222
H         -0.37324        0.08748       -2.88656
C         -0.89404        2.70149       -0.90307
H         -1.90607        2.26628       -2.81650
H          0.61386        1.56324       -2.69554
H         -1.49052       -0.05110        0.66045
H         -1.20776        3.71837       -0.72298
H          0.56395        2.34326        0.66130
C         -3.50968        1.19925       -0.46801
H         -2.71290       -0.00039       -2.04616
H         -4.17584        1.79221       -1.10292
H         -3.19576        1.82484        0.37346
H         -4.08739        0.36374       -0.05884
