20
	Energy:      39.0235372
C         -0.58326        0.18969       -0.59572
C          0.74422        2.24525       -0.25044
C          0.84298        0.78412       -0.62487
C          1.07541        0.94130       -2.13069
H          1.60803        0.22258       -0.08816
C         -1.27260        0.88923       -1.80879
H         -0.55065       -0.89303       -0.76415
C         -0.15593        1.83557       -2.32508
H          1.01736       -0.00587       -2.67898
C          0.15250        2.87841       -1.27504
H         -0.28742        2.22220       -3.33653
H          2.02162        1.43971       -2.37771
H         -1.09490        0.37544        0.35497
H         -0.11749        3.92224       -1.32240
H          1.04664        2.68035        0.68967
C         -2.58174        1.57624       -1.44708
H         -1.48090        0.13290       -2.57750
H         -2.47199        2.25496       -0.59514
H         -3.33818        0.83188       -1.17715
H         -2.96209        2.15363       -2.29574
