22
	Energy:      25.5442953
C          0.78677        0.28829       -0.05835
C          0.77752        2.60820       -0.99305
C          1.04017        1.76942        0.27199
C          2.56468        1.81089        0.37651
H          0.49522        2.12094        1.15019
C          1.99511       -0.08169       -0.93041
H          0.77998       -0.32009        0.85303
C          2.76704        1.24484       -1.03260
H          2.96198        1.16278        1.16494
C          2.00100        2.29029       -1.87734
H          0.76488        3.67646       -0.74724
H          3.80937        1.12079       -1.33457
H          2.96256        2.82375        0.49956
H          2.60282       -0.83795       -0.41925
H          1.70152       -0.49689       -1.89754
H         -0.17814        2.35810       -1.46526
H         -0.16188        0.13075       -0.58120
C          1.63524        1.86055       -3.28884
H          2.62012        3.19487       -1.95265
H          2.52424        1.52955       -3.83495
H          1.19551        2.70067       -3.83709
H          0.90189        1.04877       -3.30016
