20
	Energy:      26.9869379
C          0.62069        2.29928       -0.92436
C          2.49352        3.17000        0.48614
C          1.94076        1.92246       -0.23031
C          2.89316        1.78426       -1.41993
H          1.86079        1.04619        0.41589
C          1.08628        3.17481       -2.09701
H          0.10887        1.40652       -1.30101
C          2.61571        3.20191       -1.91906
H          2.58815        1.00771       -2.12926
C          3.00182        4.03323       -0.68050
H          3.33440        2.88615        1.12952
H          3.14472        3.50166       -2.82616
H          3.93503        1.62384       -1.12338
H          0.81738        2.69948       -3.04748
H          0.62934        4.16845       -2.07809
H          1.74099        3.67133        1.10303
H         -0.06657        2.83253       -0.25998
O          2.40908        5.31668       -0.69377
H          4.08994        4.15294       -0.62113
H          2.62809        5.74774        0.14982
