22
	Energy:      25.5600826
C         -0.81234        0.46253       -1.28435
C          0.24551        2.62157       -0.59897
C          0.49721        1.11683       -0.81239
C          1.33185        1.10486       -2.09319
H          0.94687        0.62219        0.05083
C         -0.94690        0.96615       -2.72865
H         -0.72980       -0.63003       -1.27244
C          0.28008        1.87977       -2.89361
H          1.51499        0.09688       -2.48081
C          0.15991        3.16437       -2.04023
H          1.09361        3.08147       -0.07879
H          0.54322        2.07270       -3.93591
H          2.28326        1.63795       -1.99482
H         -0.88724        0.11885       -3.42243
H         -1.89960        1.46959       -2.90858
H         -0.65719        2.81098       -0.00865
H         -1.67068        0.74676       -0.66726
C         -1.06942        4.02025       -2.29728
H          1.04498        3.78806       -2.22813
H         -1.99854        3.50715       -2.03288
H         -1.12398        4.31001       -3.35141
H         -1.02404        4.93589       -1.69778
