21
	Energy:      24.7728629
C         -0.94032        0.57109       -1.33183
C          0.24994        2.75384       -0.66367
C          0.31590        1.20206       -0.69399
C          1.34652        0.96007       -1.80448
H          0.57515        0.76579        0.27347
C         -0.81834        0.95577       -2.82067
H         -0.90912       -0.52041       -1.23035
C          0.52837        1.68373       -2.87428
H          1.49979       -0.10119       -2.02768
C          0.30691        3.00426       -2.16150
H          0.99507        1.78424       -3.85322
H          2.31237        1.43491       -1.59910
H         -0.80861        0.05544       -3.44425
H         -1.65236        1.59113       -3.13728
H         -1.87768        0.91560       -0.88774
O          0.14500        4.08305       -2.71024
C         -0.97911        3.34793       -0.00776
H          1.16452        3.15435       -0.21106
H         -1.88916        3.16996       -0.58951
H         -0.87132        4.43500        0.07602
H         -1.12024        2.94330        0.99907
