21
	Energy:      21.3856524
C          0.17411        1.43546       -0.98554
C          2.43149        1.53847        0.08359
C          1.54118        0.73733       -0.88623
C          2.15866        1.06665       -2.24613
H          1.47285       -0.32431       -0.64126
C          0.48929        2.69253       -1.80868
H         -0.54782        0.80712       -1.51926
C          2.00592        2.57901       -2.05129
H          1.57861        0.67801       -3.08993
C          2.81593        2.77908       -0.74874
H          3.33305        0.97213        0.34488
H          2.35948        3.19116       -2.88423
H          3.20076        0.74260       -2.33757
H         -0.05266        2.65683       -2.76129
H          0.19214        3.61130       -1.29648
H          1.90780        1.77984        1.01517
H         -0.24595        1.68006       -0.00482
N          2.58370        4.03977       -0.06271
H          3.88539        2.72347       -0.98980
H          1.62042        4.09016        0.26519
H          3.15880        4.07649        0.77853
