21
	Energy:      25.2751366
C         -0.74762        0.12931       -0.82670
C          0.33694        2.40298       -0.55139
C          0.59322        0.88927       -0.71813
C          1.10454        0.79996       -2.15743
H          1.26210        0.47993        0.04176
C         -1.29564        0.55715       -2.21268
H         -0.57631       -0.95239       -0.78040
C         -0.15177        1.42780       -2.76439
H          1.28072       -0.22803       -2.48912
C         -0.19304        2.69824       -1.93732
H          1.26562        2.95593       -0.38876
H         -0.12877        1.60551       -3.83924
H          2.00971        1.39561       -2.32123
H         -0.40669        2.62345        0.21689
H         -1.43687        0.39884       -0.01960
O         -0.63245        3.77404       -2.31127
C         -1.61374       -0.63405       -3.10675
H         -2.21097        1.14852       -2.08207
H         -0.73766       -1.26958       -3.27054
H         -1.96992       -0.29435       -4.08480
H         -2.39806       -1.25201       -2.65737
