20
	Energy:      39.1688626
C         -1.01064        0.95012       -1.06126
C          1.24544        1.93792       -0.79874
C          0.49158        0.63142       -0.89199
C          0.87157        0.23996       -2.32230
H          0.74269       -0.10149       -0.12482
C         -1.06232        1.65573       -2.45383
H         -1.60316        0.02810       -1.05675
C          0.41723        1.57891       -2.91524
H          0.31283       -0.62348       -2.69777
C          1.20962        2.50345       -2.01537
H          0.60627        1.70639       -3.98187
H          1.94478        0.04838       -2.45145
H         -1.38665        1.60544       -0.26775
H          1.60919        3.46685       -2.29308
H          1.68305        2.35411        0.09573
C         -2.02306        0.96817       -3.41645
H         -1.38204        2.69925       -2.33516
H         -2.00326        1.46150       -4.39369
H         -3.04776        1.01775       -3.03362
H         -1.77329       -0.08647       -3.56772
