20
	Energy:      33.9383220
C         -0.73358        0.38207       -1.20248
C          0.52150        2.38400       -0.49140
C          0.63367        0.87297       -0.73690
C          1.47651        0.80937       -2.01389
H          1.04404        0.32081        0.11244
C         -0.81354        0.95890       -2.62684
H         -0.77543       -0.71141       -1.22167
C          0.54157        1.72489       -2.79306
H          1.53204       -0.20372       -2.43227
C          0.40613        2.98984       -1.90706
H          1.44318        2.68691        0.01633
H          0.81491        1.90738       -3.83508
H          2.48449        1.22097       -1.91067
H         -0.91656        0.14432       -3.34985
H         -1.68564        1.61427       -2.73339
H         -0.31310        2.67937        0.14883
H         -1.54067        0.74360       -0.55392
O          1.34803        4.06154       -1.96937
H         -0.52771        3.42603       -2.26243
H          1.71995        4.19789       -1.09779
