19
	Energy:      24.6818063
C          0.77237       -0.91759       -1.18591
C          1.17418        1.55318       -1.17820
C          1.76412        0.18726       -0.78120
C          2.87083        0.00584       -1.81909
H          2.07910        0.13223        0.26256
C          0.87348       -0.92715       -2.71902
H          1.08404       -1.88761       -0.78228
C          1.91404        0.16685       -3.00218
H          3.34462       -0.98064       -1.77839
C          1.28991        1.53797       -2.70699
H          1.76109        2.37488       -0.75403
H          2.38710        0.09976       -3.98367
H          3.63870        0.78517       -1.77262
H          1.22877       -1.90373       -3.06663
H         -0.09029       -0.72374       -3.19635
H          0.13591        1.65642       -0.84731
H         -0.24696       -0.71615       -0.84177
F          2.15735        2.51138       -3.09228
H          0.33510        1.70634       -3.21287
