21
	Energy:      55.0697609
C         -0.74763        0.45387       -1.20162
C          0.65447        2.46312       -0.41829
C          0.62085        0.93477       -0.72169
C          1.45729        0.80984       -2.01707
H          1.02066        0.31685        0.08578
C         -0.83427        1.00508       -2.63346
H         -0.77727       -0.64447       -1.21761
C          0.52991        1.69678       -2.82100
H          1.52027       -0.21228       -2.40632
C          0.60002        2.92569       -1.90249
H          0.80918        1.90682       -3.85462
H          2.46729        1.22762       -1.93116
H         -0.96554        0.17600       -3.34406
H         -1.68548        1.68348       -2.74049
H         -1.55377        0.80924       -0.55741
O          0.36211        4.04697       -2.28293
C          1.48220        2.59666        0.86020
H         -0.18182        3.09999       -0.10771
H          2.22439        1.80060        1.00304
H          0.79000        2.46105        1.72231
H          1.96644        3.55785        0.99743
