21
	Energy:      25.6326110
C         -1.02807        0.15742       -0.72691
C          0.85266        1.62979        0.09728
C          0.42644        0.16918       -0.18198
C          1.24710       -0.16386       -1.43296
H          0.58959       -0.49209        0.67208
C         -0.85951        0.68190       -2.17737
C          0.64417        0.96383       -2.26866
H          1.04133       -1.15759       -1.84210
C          0.91223        2.12401       -1.33116
H          1.84779        1.68337        0.54644
H          1.05946        1.09698       -3.26674
H          2.32544       -0.05462       -1.27077
H         -1.15853       -0.06914       -2.91688
H         -1.45831        1.58486       -2.33965
H          0.11514        2.18248        0.68251
O          1.09950        3.28147       -1.67093
C         -1.66182       -1.22909       -0.68793
H         -1.66311        0.83889       -0.14773
H         -1.72969       -1.59046        0.34338
H         -1.08746       -1.96155       -1.26362
H         -2.67522       -1.19778       -1.10169
