20
	Energy:      39.1688715
C         -1.51625        1.30529       -1.33394
C          0.58851        2.60569       -1.21797
C          0.01991        1.20556       -1.20285
C          0.40822        0.77660       -2.62012
H          0.39221        0.56540       -0.40263
C         -1.70567        1.90462       -2.76388
H         -1.97537        0.31357       -1.25082
C         -0.24386        1.99961       -3.27569
H         -0.03670       -0.17750       -2.92087
C          0.43928        3.08023       -2.46451
H         -0.10558        2.08151       -4.35451
H          1.49335        0.72467       -2.77810
H         -1.95572        1.95394       -0.56804
H          0.69363        4.06875       -2.81529
H          0.99045        3.13519       -0.36775
C         -2.59007        1.03128       -3.64566
H         -2.16278        2.90051       -2.69689
H         -2.66602        1.45681       -4.65161
H         -3.60054        0.96735       -3.22865
H         -2.20245        0.01233       -3.74057
