20
	Energy:      25.8954554
C         -0.73422        0.39108       -1.33003
C          0.56312        2.37854       -0.52115
C          0.63973        0.87152       -0.83061
C          1.46189        0.85790       -2.11779
H          1.03903        0.27599       -0.00741
C         -0.82983        1.01238       -2.73201
H         -0.76289       -0.70212       -1.40071
C          0.49265        1.78568       -2.85631
H          1.53746       -0.13590       -2.57178
C          0.43994        3.00708       -1.91958
H          1.46831        2.71691       -0.00447
H          0.78451        2.01912       -3.88255
H          2.46399        1.28182       -1.99557
H         -0.89281        0.22334       -3.48991
H         -1.70736        1.65797       -2.83761
H         -0.30241        2.61504        0.10632
H         -1.55416        0.71297       -0.68031
O          1.54597        3.85916       -2.18196
H         -0.48072        3.58729       -2.03899
H          1.51961        4.57821       -1.52782
