20
	Energy:      42.4165202
C         -0.73178        0.39613       -1.18584
C          0.56238        2.39044       -0.49496
C          0.64916        0.87817       -0.73302
C          1.46829        0.80051       -2.02221
H          1.06094        0.32364        0.11322
C         -0.83258        0.96952       -2.60873
H         -0.77184       -0.69720       -1.21219
C          0.54206        1.72265       -2.78511
H          1.51528       -0.21159       -2.43811
C          0.47167        2.99073       -1.91358
H          1.49732        2.72666       -0.00203
H          0.75978        1.89901       -3.83783
H          2.47010        1.22020       -1.93871
H         -0.93927        0.15045       -3.33240
H         -1.70797        1.62549       -2.71919
H         -0.26383        2.69679        0.14444
H         -1.53659        0.75360       -0.53416
C          1.36156        4.15870       -1.78953
H         -0.36863        3.44575       -2.43489
N          1.98608        5.08741       -1.50738
