22
	Energy:      24.9287645
C         -0.44324        0.37122       -2.20620
C          0.58850        2.35568       -1.07084
C          0.76987        0.86222       -1.39804
C          1.86110        0.90865       -2.46558
H          0.99089        0.24763       -0.52324
C         -0.22978        1.02375       -3.58032
H         -0.43265       -0.72026       -2.30277
C          1.06018        1.84054       -3.37757
H          2.06277       -0.06824       -2.91811
C          0.73682        3.03565       -2.44908
H          1.36226        2.68993       -0.37009
H          1.54917        2.11638       -4.31437
H          2.79930        1.34235       -2.10654
H         -0.08474        0.25215       -4.34510
H         -1.08111        1.64309       -3.87962
H         -0.38811        2.56231       -0.62071
H         -1.39571        0.66536       -1.75411
C          1.82792        4.10072       -2.45380
H         -0.20628        3.51248       -2.74258
H          2.80136        3.69555       -2.16019
H          1.57712        4.90841       -1.75821
H          1.93315        4.53639       -3.45280
