20
	Energy:      24.5120880
C          0.59773       -0.66831       -1.19318
C          1.16881        1.66993       -0.48895
C          1.67140        0.21408       -0.53322
C          2.73520        0.28372       -1.62610
H          2.01114       -0.16009        0.43445
C          0.67229       -0.25649       -2.67127
H          0.84523       -1.73042       -1.08599
C          1.75919        0.83446       -2.67045
H          3.14400       -0.69663       -1.89340
C          1.18731        2.09210       -1.97342
H          1.83703        2.28564        0.12517
H          2.19125        1.01608       -3.65771
H          3.55604        0.96796       -1.38851
H          0.97979       -1.11094       -3.28492
H         -0.28976        0.10443       -3.04825
H          0.16199        1.73838       -0.06283
H         -0.39848       -0.50513       -0.77009
C          2.03495        3.27375       -2.19966
H          0.17254        2.31180       -2.32551
N          2.70185        4.20609       -2.37985
