22
	Energy:      24.9346558
C         -0.73821        0.43673       -1.25381
C          0.57548        2.37164       -0.34789
C          0.61961        0.86747       -0.67440
C          1.51125        0.84268       -1.91415
H          0.95506        0.24928        0.16073
C         -0.73255        1.07039       -2.65311
H         -0.79922       -0.65430       -1.33571
C          0.61744        1.81137       -2.69123
H          1.57765       -0.14764       -2.37745
C          0.52878        3.03112       -1.74328
H          1.47107        2.66849        0.20979
H          0.95094        2.05034       -3.70349
H          2.51978        1.22455       -1.72949
H         -0.76893        0.28879       -3.42057
H         -1.58649        1.73758       -2.80675
H         -0.30079        2.63569        0.25353
H         -1.58216        0.78192       -0.64826
C          1.66670        4.02506       -1.95042
H         -0.41947        3.56425       -1.88279
H          2.64858        3.56647       -1.79674
H          1.57499        4.86207       -1.25036
H          1.64108        4.43097       -2.96700
