21
	Energy:      21.1161991
C         -1.79844        1.58326       -1.42179
C          0.37517        2.75158       -0.99109
C         -0.35991        1.40029       -0.91031
C          0.28468        0.62052       -2.05595
H         -0.30183        0.92937        0.07290
C         -1.60525        1.75857       -2.93504
H         -2.40130        0.69063       -1.22037
C         -0.07536        1.68054       -3.10041
H         -0.19510       -0.34654       -2.24140
C          0.54422        2.96999       -2.51150
H          1.34127        2.68535       -0.47583
H          0.23362        1.45645       -4.12425
H          1.36100        0.47195       -1.92673
H         -2.09647        0.94067       -3.47448
H         -2.02203        2.70356       -3.29737
H         -0.19218        3.56510       -0.52653
H         -2.29973        2.44400       -0.96803
N          1.94933        3.11964       -2.87843
H          0.00135        3.86126       -2.84448
H          2.48357        2.30593       -2.57785
H          2.34702        3.91563       -2.38100
