20
	Energy:      26.5046669
C         -1.72239       -0.28181       -1.93803
C         -2.13299        2.19382       -1.99315
C         -1.10738        1.09841       -1.64450
C         -0.10092        1.23906       -2.78459
H         -0.69678        1.18946       -0.63708
C         -1.73637       -0.33644       -3.47404
H         -1.09036       -1.08344       -1.53956
C         -1.16115        1.03326       -3.87129
H          0.66767        0.45864       -2.78016
C         -2.20425        2.11572       -3.52772
H         -1.78738        3.17675       -1.65383
H         -0.77960        1.08420       -4.89320
H          0.38033        2.22129       -2.81784
H         -1.09022       -1.14780       -3.82802
H         -2.74243       -0.50404       -3.87118
H         -3.10595        1.99331       -1.53266
H         -2.72487       -0.39373       -1.51306
O         -1.86512        3.36170       -4.11873
H         -3.20759        1.84776       -3.87377
H         -0.98031        3.62061       -3.81230
