21
	Energy:      24.5137453
C         -2.46531        0.76989       -0.71204
C         -0.31865        1.35333        0.48063
C         -1.35583        0.22819        0.21737
C         -0.62235       -0.72054       -0.73764
H         -1.74524       -0.23519        1.12671
C         -1.75659        0.90005       -2.07682
H         -3.29055        0.05233       -0.78663
C         -0.35383        0.35800       -1.78496
H         -1.25972       -1.52890       -1.11224
C          0.31497        1.39277       -0.90027
H          0.24480        0.05862       -2.64424
H          0.28925       -1.14878       -0.30967
H         -2.26934        0.29013       -2.82829
H         -1.74255        1.93969       -2.42087
H         -2.87455        1.72507       -0.36833
O          1.19099        2.16514       -1.25714
C          0.69733        1.01796        1.55681
H         -0.81498        2.30550        0.69348
H          0.20111        0.84994        2.51782
H          1.40595        1.84411        1.68044
H          1.28514        0.12717        1.31413
