21
	Energy:      22.4596498
C         -0.73453        0.39142       -1.23177
C          0.51109        2.42809       -0.47123
C          0.62978        0.92006       -0.74172
C          1.46179        0.88641       -2.01848
H          1.02842        0.35965        0.10750
C         -0.82186        0.95443       -2.65929
H         -0.73978       -0.70523       -1.25880
C          0.47880        1.77415       -2.78702
H          1.56616       -0.11949       -2.44160
C          0.31195        3.02458       -1.88061
H          1.43403        2.78486        0.00399
H          0.75168        1.98720       -3.82423
H          2.45711        1.33340       -1.89562
H         -0.85247        0.13643       -3.38435
H         -1.72175        1.56189       -2.79978
H         -0.32221        2.68018        0.19317
H         -1.56172        0.72851       -0.60452
N          1.23536        4.12535       -2.11297
H         -0.70079        3.42801       -1.98812
H          2.16429        3.93547       -1.74571
H          1.32999        4.31689       -3.10871
