22
	Energy:      24.9287645
C         -1.31526        0.94174       -2.80929
C          0.70537        2.27498       -2.15271
C          0.07368        0.87093       -2.15228
C          0.89428        0.16106       -3.22712
H          0.06951        0.39470       -1.16992
C         -0.98425        1.13862       -4.29631
H         -1.86306        0.00338       -2.66727
C          0.55490        1.19557       -4.30239
H          0.52146       -0.84189       -3.46136
C          0.99370        2.52772       -3.64833
H          1.62573        2.27997       -1.55738
H          0.99064        1.01116       -5.28673
H          1.96105        0.10499       -2.99029
H         -1.44363        2.04417       -4.70482
H         -1.34351        0.28237       -4.87860
H          0.02954        3.03001       -1.73769
H         -1.92651        1.75814       -2.41185
C          2.45945        2.85906       -3.90655
H          0.38532        3.36194       -4.01836
H          3.12958        2.06938       -3.55261
H          2.73715        3.78790       -3.39737
H          2.63795        2.99547       -4.97819
