15
	Energy:      57.1150499
C         -0.72102        0.46859       -1.24270
C          0.64045        2.40877       -0.52830
C          0.65557        0.90668       -0.67724
C          1.44753        0.81602       -1.99395
H          1.11292        0.35788        0.15248
C         -0.84050        0.88654       -2.51711
C          0.46308        1.73334       -2.75421
H          1.49228       -0.19856       -2.41177
C          0.52324        2.91384       -1.76879
H          0.78436        1.98547       -3.76334
H          2.48225        1.19747       -1.91928
H          0.42613        3.96013       -2.02231
H          0.63685        2.95074        0.40625
H         -1.61350        0.56490       -3.27265
H         -1.38848       -0.15316       -0.63712
