17
	Energy:      34.1085809
C          0.18013        1.36793       -2.32564
C          1.92759        2.22090       -0.80647
C          1.46501        0.99336       -1.55782
C          2.49705        1.00081       -2.68953
H          1.42296        0.07825       -0.96673
C          0.69647        2.38400       -3.38197
H         -0.24812        0.49218       -2.82600
C          2.20715        2.45427       -3.07601
H          2.26922        0.28618       -3.48857
C          2.37348        3.09863       -1.71861
H          2.83904        2.86568       -3.86343
H          3.52581        0.83717       -2.34411
H          0.51764        1.99810       -4.39184
H          0.19893        3.35523       -3.28817
H         -0.58689        1.80849       -1.67970
H          2.73022        4.10010       -1.53253
H          1.85463        2.37592        0.25912
