19
	Energy:      19.7783952
C         -0.90381        0.24112       -1.06850
C          1.48548        0.94200       -1.30912
C          0.52070       -0.25434       -1.37027
C          0.44766       -0.52132       -2.87322
H          0.83088       -1.10002       -0.75360
C         -1.26508        1.03957       -2.33015
H         -1.59254       -0.60257       -0.94705
C         -0.00270        0.90243       -3.19811
H         -0.29380       -1.28114       -3.14176
C          1.12421        1.74045       -2.57076
H          2.52720        0.60593       -1.36193
H         -0.17181        1.11602       -4.25521
H          1.41632       -0.77949       -3.31398
H         -2.13081        0.58705       -2.82680
H          0.80850        2.76171       -2.33535
H          1.98893        1.79555       -3.24168
H         -1.50811        2.08215       -2.10206
H          1.36343        1.53526       -0.39740
H         -0.95318        0.85570       -0.16411
