21
	Energy:      26.1893560
C          1.31224        0.20679       -1.77225
C          2.41511        2.26571       -0.84067
C          2.59880        0.75507       -1.10843
C          3.57574        0.69397       -2.29536
H          2.89822        0.19175       -0.22188
C          1.36981        0.79426       -3.20127
H          1.33587       -0.88809       -1.81699
C          2.69411        1.57084       -3.19519
C          2.44405        2.75127       -2.27331
H          3.25066        2.69209       -0.28115
H          3.10453        1.84487       -4.16645
H          1.38706       -0.01283       -3.94162
H          0.50493        1.43508       -3.40342
H          1.45991        2.49550       -0.36365
H          0.40347        0.50725       -1.24119
O          2.24779        3.90137       -2.63280
C          4.98451        1.21357       -2.04424
H          3.65497       -0.32786       -2.69052
H          5.01652        2.25839       -1.72330
H          5.57832        1.13981       -2.96156
H          5.47759        0.61190       -1.27379
