20
	Energy:      40.2511204
C         -0.22403        0.60402       -3.08203
C          0.38928        2.32571       -1.44197
C          0.88977        1.06459       -2.11295
C          1.90432        1.65471       -3.10981
H          1.27762        0.30328       -1.43523
C         -0.22333        1.72739       -4.15979
H          0.02779       -0.35798       -3.54240
C          0.89077        2.67582       -3.65879
C          0.38997        3.29436       -2.37127
H          1.27958        3.38421       -4.39114
H          0.02882        1.30710       -5.13989
H         -1.19932        2.21912       -4.23392
H         -1.20039        0.51021       -2.59442
H          0.04576        4.30983       -2.24858
H          0.04466        2.40650       -0.42246
C          3.18478        2.22951       -2.50979
H          2.19142        0.92028       -3.87511
H          3.78436        2.70481       -3.29330
H          3.78347        1.42658       -2.06690
H          3.01165        2.97741       -1.73040
