17
	Energy:      47.7144391
C         -1.33265        1.01168       -2.51834
C         -0.47090        1.78786       -1.58008
C          0.11371        0.66948       -2.37776
C          0.85078        1.27251       -3.55358
H          0.46072       -0.24592       -1.93920
C         -1.49268        1.82046       -3.78423
H         -2.12278        0.36366       -2.19206
C         -0.09224        2.50949       -3.71075
H          0.83633        0.61804       -4.43000
C         -0.09043        3.08346       -2.25750
H         -0.58123        1.75212       -0.51367
H          0.15087        3.20745       -4.51143
H          1.87624        1.55470       -3.29776
H         -1.60498        1.18739       -4.66927
H         -0.84607        3.86123       -2.11363
H          0.89589        3.43991       -1.94639
H         -2.31609        2.53719       -3.71415
