17
	Energy:      47.7144391
C         -3.61559        1.88683        0.53289
C         -4.33331        2.62707        1.61260
C         -3.53186        3.37480        0.59899
C         -5.79084        2.72658        1.21865
H         -4.06036        2.56570        2.64818
C         -5.53236        2.78049       -0.32225
H         -6.26031        3.63852        1.59894
H         -6.36135        1.84293        1.51918
C         -4.49293        3.94310       -0.41866
H         -2.62970        3.90328        0.83874
H         -4.04260        4.02072       -1.41254
H         -4.90718        4.90584       -0.10526
C         -4.62918        1.52189       -0.52621
H         -2.77947        1.24155        0.72050
H         -5.15017        0.58769       -0.29707
H         -4.18544        1.48249       -1.52528
H         -6.41223        2.85834       -0.96030


