13
	Energy:       5.7132001
C        -17.00197        1.94638        9.16851
C        -15.92560        1.36576        8.49808
C        -14.84746        2.15522        8.09629
C        -14.84594        3.52508        8.36500
C        -15.92231        4.10820        9.03593
C        -16.99283        3.31149        9.43236
O        -18.06492        3.83857       10.09005
H        -17.91870        4.79189       10.20205
H        -17.84417        1.33746        9.48392
H        -14.00477        4.13754        8.05083
H        -15.90780        5.17416        9.23815
H        -15.92828        0.29930        8.28965
H        -14.00860        1.70260        7.57376


