42
	Energy:      21.9533838
C         -4.28993        2.85357        0.34901
C         -4.48935        1.47441       -0.30234
O         -3.52930        0.55033        0.25628
H         -4.34338        1.54676       -1.38404
H         -5.49743        1.10799       -0.09075
O         -3.12212        3.47873       -0.22813
H         -4.15110        2.74123        1.42824
H         -5.16152        3.48403        0.15378
C         -3.57817       -0.77882       -0.30819
C         -2.47524       -1.63471        0.33763
H         -3.42462       -0.72456       -1.38991
H         -4.55731       -1.21696       -0.09703
O         -1.20200       -1.27014       -0.23999
H         -2.66411       -2.69291        0.13810
H         -2.45173       -1.46215        1.41759
C         -0.06838       -1.97209        0.31668
C          1.21624       -1.45041       -0.34944
H         -0.18094       -3.04089        0.11605
H         -0.02536       -1.80270        1.39653
O          1.54477       -0.16119        0.21417
H          1.06504       -1.35205       -1.42838
H          2.04045       -2.14185       -0.15489
C          2.71304        0.46449       -0.36147
C          2.91159        1.84327        0.29094
H          2.57524        0.57751       -1.44076
H          3.58451       -0.16599       -0.16579
O          1.95235        2.76761       -0.26863
H          3.91998        2.20979        0.08100
H          2.76403        1.77036        1.37239
C          2.00047        4.09658        0.29631
C          0.89831        4.95253       -0.35074
H          2.97986        4.53482        0.08652
H          1.84553        4.04201        1.37781
O         -0.37551        4.58823        0.22577
H          0.87581        4.77975       -1.43068
H          1.08712        6.01074       -0.15124
C         -1.50869        5.28929       -0.33287
C         -2.79375        4.76889        0.33342
H         -1.55102        5.11799       -1.41245
H         -1.39619        6.35844       -0.13406
H         -3.61779        5.46007        0.13724
H         -2.64312        4.67240        1.41260
