29
	Energy:      53.2323378
C         -7.44277        0.56779        0.40130
C         -6.44948        1.62761       -0.07517
O         -5.24189        1.49329        0.66007
H         -6.86744        2.63688        0.12456
H         -6.34991        1.52655       -1.17929
C         -4.08156        1.39734       -0.15114
C         -3.35791        0.08701        0.15270
H         -3.41321        2.24899        0.09700
H         -4.26374        1.44982       -1.24784
O         -4.20835       -0.98520       -0.18216
H         -3.11275        0.07673        1.23943
H         -2.42541        0.05164       -0.45479
C         -3.59365       -2.21868        0.11635
C         -4.64472       -3.32189        0.01401
H         -3.17933       -2.23986        1.15097
H         -2.78778       -2.42585       -0.62260
O         -5.63376       -3.12335        1.01351
H         -4.16348       -4.30751        0.18870
H         -5.02200       -3.31282       -1.03370
C         -6.96304       -3.17280        0.51698
C         -7.65022       -1.83085        0.77434
H         -7.50994       -3.97156        1.06111
H         -7.05514       -3.42144       -0.56408
N         -6.91874       -0.76386        0.08974
H         -8.70366       -1.87076        0.41826
H         -7.64758       -1.64583        1.87155
H         -8.42665        0.71430       -0.09761
H         -7.57705        0.69034        1.49926
H         -6.95414       -0.91680       -0.94626
