36
	Energy:      16.6911746
C         -7.83957        1.86816       -0.52757
C         -7.97051        0.33477       -0.50140
O         -6.48180        2.21200       -0.17840
H         -8.52526        2.32339        0.19217
H         -8.05913        2.23583       -1.53368
C         -6.09610        3.58658       -0.40429
C         -4.68554        3.78364        0.17827
H         -6.80267        4.25068        0.10092
H         -6.09470        3.79074       -1.47848
O         -3.78786        2.84238       -0.45619
H         -4.72461        3.58831        1.25382
H         -4.32918        4.80189        0.00241
C         -2.62051        2.48667        0.32197
C         -2.09041        1.12476       -0.16311
H         -2.90185        2.39062        1.37460
H         -1.85843        3.26299        0.21542
O         -3.19287        0.19039       -0.15602
H         -1.30731        0.77441        0.51490
H         -1.69474        1.20579       -1.17908
C         -2.85367       -1.21089       -0.22879
C         -4.14926       -2.00554       -0.47983
H         -2.39759       -1.51615        0.71711
H         -2.15134       -1.37839       -1.05014
N         -5.20234       -1.61004        0.47769
H         -3.94776       -3.07650       -0.39183
H         -4.49107       -1.79364       -1.49692
C         -6.49824       -2.25134        0.18324
C         -7.62936       -1.59503        1.00474
H         -6.44125       -3.31643        0.42325
H         -6.72639       -2.15288       -0.88105
O         -7.64349       -0.15402        0.82470
H         -8.59871       -2.00656        0.71052
H         -7.46684       -1.79852        2.06674
H         -8.99263        0.04002       -0.75304
H         -7.27622       -0.08648       -1.23255
H         -5.31635       -0.59588        0.42991
