8
	Energy:      -7.7246752
C         -9.19310        5.49076        5.30350
C        -10.20115        4.43202        5.64392
H         -9.26254        6.35786        5.99216
H         -9.36389        5.85973        4.28804
H         -8.19101        5.08420        5.41014
O        -11.24219        4.75220        6.25411
O         -9.99463        3.15194        5.26031
H         -9.39825        2.49991        4.80916
