7
	Energy:       8.6468254
C         -4.94280        4.81474       -0.04542
C         -5.90335        3.94798        0.29896
H         -4.97049        5.84160        0.30571
H         -4.11027        4.52538       -0.68147
C         -5.90430        2.59570       -0.13908
H         -6.72329        4.26263        0.93501
N         -5.90927        1.49171       -0.49396
