15
	Energy:      -2.4202612
C         -7.11307       -2.33626        4.69420
C         -6.85977       -1.02287        4.63370
H         -6.38285       -3.07188        4.36664
H         -8.05993       -2.70279        5.07584
C         -5.57241       -0.52323        4.10603
H         -7.58538       -0.28905        4.96209
O         -4.70286       -1.21212        3.60033
O         -5.54330        0.82139        4.28132
C         -4.36100        1.44922        3.77147
C         -4.37334        2.90434        4.19803
H         -4.36447        1.38338        2.67791
H         -3.46485        0.95805        4.16751
H         -5.29525        3.39708        3.87229
H         -3.51703        3.44039        3.77924
H         -4.33797        2.98383        5.28969
