23
	Energy:      65.5031174
C         -6.01253        5.17168        0.18756
C         -7.58808        4.89001        0.56663
C         -5.71336        3.84956       -0.55328
H         -5.83674        3.05787        0.21636
H         -4.68349        3.67664       -0.87877
H         -6.39550        3.63061       -1.37080
C         -4.59024        5.32021        0.83504
H         -4.22968        4.48074        1.43075
H         -4.35859        6.26479        1.34180
H         -3.87745        5.36624       -0.02931
C         -6.10834        6.64922       -0.33137
H         -5.15524        7.13146       -0.59110
H         -6.45775        7.26439        0.52770
H         -6.81538        6.82157       -1.14039
O         -8.44304        5.80174        0.61770
O         -8.00513        3.56501        0.50772
C         -9.43163        3.29710        0.29728
C         -9.77235        1.79917        0.18422
H         -9.76544        3.77842       -0.63198
H         -9.99790        3.70749        1.13817
H         -9.39438        1.35430       -0.74438
H        -10.86277        1.65045        0.17979
H         -9.36155        1.21695        1.01426
