8
	Energy:       9.3878891
C         -7.07022        2.32387        5.35075
C         -6.43159        3.49759        5.40423
H         -6.74661        1.51121        4.70788
H         -7.95012        2.15203        5.96388
C         -5.23481        3.74566        4.57660
H         -6.75448        4.30974        6.04495
O         -4.64806        4.81966        4.61245
H         -4.90449        2.91502        3.93113


