12
	Energy:      15.2712140
C        -19.48994        2.33874       10.54538
C        -18.25082        2.31033        9.90355
C        -17.51024        3.48499        9.76450
C        -18.00650        4.68896       10.26629
C        -19.24543        4.71927       10.90842
C        -19.98223        3.54357       11.04531
H        -20.06406        1.42252       10.65203
H        -19.62900        5.65819       11.29798
H        -17.42845        5.60318       10.15722
H        -16.54491        3.46211        9.26433
H        -17.86292        1.37322        9.51214
Cl       -21.50987        3.57977       11.83684


