14
	Energy:      13.4926543
C        -19.61815        2.34862       10.60384
C        -18.32948        2.33101        9.97946
C        -17.58208        3.47960        9.79585
C        -18.13002        4.65562       10.31801
C        -19.39907        4.65985       10.99188
C        -20.19214        3.51172       11.17231
H        -20.16219        1.41143       10.60420
H        -19.72927        5.63425       11.36051
H        -17.54641        5.56478       10.19302
H        -16.62676        3.47328        9.26713
H        -17.89731        1.39147        9.62075
N        -21.45483        3.49808       11.78503
H        -21.98411        2.64828       11.95974
H        -21.88885        4.30409       12.23544


